data_image0
_cell_length_a       8.24666
_cell_length_b       19.7195
_cell_length_c       35.1027
_cell_angle_alpha    90
_cell_angle_beta     90
_cell_angle_gamma    90

_symmetry_space_group_name_H-M    "P 1"
_symmetry_int_tables_number       1

loop_
  _symmetry_equiv_pos_as_xyz
  'x, y, z'

loop_
  _atom_site_label
  _atom_site_occupancy
  _atom_site_fract_x
  _atom_site_fract_y
  _atom_site_fract_z
  _atom_site_thermal_displace_type
  _atom_site_B_iso_or_equiv
  _atom_site_type_symbol
  Li1      1.0000 0.36365  0.01272  0.65898  Biso   1.000  Li
  Li2      1.0000 0.61554  0.11337  0.65743  Biso   1.000  Li
  Li3      1.0000 0.61672  0.01292  0.71265  Biso   1.000  Li
  Li4      1.0000 0.36778  0.11301  0.71360  Biso   1.000  Li
  F1       1.0000 0.36753  0.01283  0.71599  Biso   1.000  F
  F2       1.0000 0.61502  0.01282  0.65467  Biso   1.000  F
  F3       1.0000 0.36480  0.11271  0.65674  Biso   1.000  F
  F4       1.0000 0.61638  0.11287  0.71501  Biso   1.000  F
  Li5      1.0000 0.36466  0.21281  0.65822  Biso   1.000  Li
  Li6      1.0000 0.61694  0.31357  0.65907  Biso   1.000  Li
  Li7      1.0000 0.61585  0.21304  0.71317  Biso   1.000  Li
  Li8      1.0000 0.36564  0.31297  0.71326  Biso   1.000  Li
  F5       1.0000 0.36658  0.21300  0.71574  Biso   1.000  F
  F6       1.0000 0.61592  0.21357  0.65562  Biso   1.000  F
  F7       1.0000 0.36632  0.31275  0.65608  Biso   1.000  F
  F8       1.0000 0.61558  0.31302  0.71600  Biso   1.000  F
  Li9      1.0000 0.36761  0.41270  0.65771  Biso   1.000  Li
  Li10     1.0000 0.61724  0.51273  0.66000  Biso   1.000  Li
  Li11     1.0000 0.61520  0.41284  0.71401  Biso   1.000  Li
  Li12     1.0000 0.36419  0.51279  0.71307  Biso   1.000  Li
  F9       1.0000 0.36487  0.41293  0.71533  Biso   1.000  F
  F10      1.0000 0.61656  0.41317  0.65701  Biso   1.000  F
  F11      1.0000 0.36763  0.51279  0.65573  Biso   1.000  F
  F12      1.0000 0.61539  0.51268  0.71654  Biso   1.000  F
  Li13     1.0000 0.36811  0.61281  0.65790  Biso   1.000  Li
  Li14     1.0000 0.61625  0.71200  0.65925  Biso   1.000  Li
  Li15     1.0000 0.61576  0.61252  0.71404  Biso   1.000  Li
  Li16     1.0000 0.36539  0.71243  0.71354  Biso   1.000  Li
  F13      1.0000 0.36471  0.61253  0.71548  Biso   1.000  F
  F14      1.0000 0.61631  0.61233  0.65716  Biso   1.000  F
  F15      1.0000 0.36668  0.71284  0.65649  Biso   1.000  F
  F16      1.0000 0.61611  0.71249  0.71616  Biso   1.000  F
  Li17     1.0000 0.36541  0.81280  0.65893  Biso   1.000  Li
  Li18     1.0000 0.61516  0.91224  0.65763  Biso   1.000  Li
  Li19     1.0000 0.61665  0.81252  0.71337  Biso   1.000  Li
  Li20     1.0000 0.36766  0.91265  0.71379  Biso   1.000  Li
  F17      1.0000 0.36630  0.81262  0.71604  Biso   1.000  F
  F18      1.0000 0.61542  0.81206  0.65593  Biso   1.000  F
  F19      1.0000 0.36504  0.91269  0.65706  Biso   1.000  F
  F20      1.0000 0.61672  0.91273  0.71512  Biso   1.000  F
  Li21     1.0000 0.86821  0.01295  0.65766  Biso   1.000  Li
  Li22     1.0000 0.11692  0.11269  0.65990  Biso   1.000  Li
  Li23     1.0000 0.11516  0.01294  0.71410  Biso   1.000  Li
  Li24     1.0000 0.86446  0.11300  0.71326  Biso   1.000  Li
  F21      1.0000 0.86451  0.01286  0.71528  Biso   1.000  F
  F22      1.0000 0.11654  0.01288  0.65733  Biso   1.000  F
  F23      1.0000 0.86741  0.11317  0.65601  Biso   1.000  F
  F24      1.0000 0.11562  0.11285  0.71646  Biso   1.000  F
  Li25     1.0000 0.86671  0.21339  0.65838  Biso   1.000  Li
  Li26     1.0000 0.11544  0.31234  0.65843  Biso   1.000  Li
  Li27     1.0000 0.11607  0.21302  0.71378  Biso   1.000  Li
  Li28     1.0000 0.86628  0.31293  0.71376  Biso   1.000  Li
  F25      1.0000 0.86532  0.21296  0.71582  Biso   1.000  F
  F26      1.0000 0.11581  0.21248  0.65670  Biso   1.000  F
  F27      1.0000 0.86569  0.31315  0.65685  Biso   1.000  F
  F28      1.0000 0.11639  0.31300  0.71564  Biso   1.000  F
  Li29     1.0000 0.86407  0.41284  0.65907  Biso   1.000  Li
  Li30     1.0000 0.11476  0.51265  0.65716  Biso   1.000  Li
  Li31     1.0000 0.11670  0.41281  0.71289  Biso   1.000  Li
  Li32     1.0000 0.86768  0.51276  0.71373  Biso   1.000  Li
  F29      1.0000 0.86697  0.41289  0.71612  Biso   1.000  F
  F30      1.0000 0.11487  0.41241  0.65504  Biso   1.000  F
  F31      1.0000 0.86453  0.51256  0.65690  Biso   1.000  F
  F32      1.0000 0.11650  0.51267  0.71484  Biso   1.000  F
  Li33     1.0000 0.86354  0.61226  0.65854  Biso   1.000  Li
  Li34     1.0000 0.11614  0.71310  0.65825  Biso   1.000  Li
  Li35     1.0000 0.11619  0.61251  0.71272  Biso   1.000  Li
  Li36     1.0000 0.86650  0.71244  0.71345  Biso   1.000  Li
  F33      1.0000 0.86710  0.61252  0.71589  Biso   1.000  F
  F34      1.0000 0.11519  0.61295  0.65489  Biso   1.000  F
  F35      1.0000 0.86528  0.71228  0.65640  Biso   1.000  F
  F36      1.0000 0.11585  0.71249  0.71548  Biso   1.000  F
  Li37     1.0000 0.86598  0.81234  0.65796  Biso   1.000  Li
  Li38     1.0000 0.11728  0.91299  0.65986  Biso   1.000  Li
  Li39     1.0000 0.11520  0.81252  0.71367  Biso   1.000  Li
  Li40     1.0000 0.86462  0.91271  0.71309  Biso   1.000  Li
  F37      1.0000 0.86560  0.81266  0.71553  Biso   1.000  F
  F38      1.0000 0.11624  0.81314  0.65649  Biso   1.000  F
  F39      1.0000 0.86725  0.91257  0.65580  Biso   1.000  F
  F40      1.0000 0.11527  0.91273  0.71637  Biso   1.000  F
  Li41     1.0000 0.46738  0.11787  0.31228  Biso   1.000  Li
  Li42     1.0000 0.96466  0.14430  0.36562  Biso   1.000  Li
  Li43     1.0000 0.12860  0.11513  0.28870  Biso   1.000  Li
  Li44     1.0000 0.31032  0.14386  0.39754  Biso   1.000  Li
  Li45     1.0000 0.96795  0.24277  0.31202  Biso   1.000  Li
  Li46     1.0000 0.46453  0.01931  0.36582  Biso   1.000  Li
  Li47     1.0000 0.62885  0.24011  0.28899  Biso   1.000  Li
  Li48     1.0000 0.81071  0.01884  0.39745  Biso   1.000  Li
  C1       1.0000 0.13752  0.02316  0.38129  Biso   1.000  C
  C2       1.0000 0.29676  0.23930  0.29715  Biso   1.000  C
  C3       1.0000 0.63764  0.14823  0.38132  Biso   1.000  C
  C4       1.0000 0.79674  0.11430  0.29720  Biso   1.000  C
  O1       1.0000 0.42766  0.02150  0.30849  Biso   1.000  O
  O2       1.0000 0.00910  0.24030  0.37022  Biso   1.000  O
  O3       1.0000 0.16660  0.02271  0.28986  Biso   1.000  O
  O4       1.0000 0.26577  0.24027  0.39274  Biso   1.000  O
  O5       1.0000 0.92811  0.14642  0.30824  Biso   1.000  O
  O6       1.0000 0.50880  0.11537  0.37044  Biso   1.000  O
  O7       1.0000 0.66645  0.14765  0.29014  Biso   1.000  O
  O8       1.0000 0.76615  0.11523  0.39257  Biso   1.000  O
  O9       1.0000 0.13832  0.08817  0.38096  Biso   1.000  O
  O10      1.0000 0.30058  0.17431  0.29410  Biso   1.000  O
  O11      1.0000 0.63848  0.21325  0.38103  Biso   1.000  O
  O12      1.0000 0.80053  0.04931  0.29411  Biso   1.000  O
  Li49     1.0000 0.16159  0.11823  0.48150  Biso   1.000  Li
  Li50     1.0000 0.65910  0.14482  0.53413  Biso   1.000  Li
  Li51     1.0000 0.81602  0.11875  0.44934  Biso   1.000  Li
  Li52     1.0000 0.99728  0.14732  0.55857  Biso   1.000  Li
  Li53     1.0000 0.66247  0.24357  0.48100  Biso   1.000  Li
  Li54     1.0000 0.15910  0.01960  0.53510  Biso   1.000  Li
  Li55     1.0000 0.31602  0.24387  0.44947  Biso   1.000  Li
  Li56     1.0000 0.50015  0.02219  0.55856  Biso   1.000  Li
  C5       1.0000 0.82995  0.02302  0.54937  Biso   1.000  C
  C6       1.0000 0.98928  0.23932  0.46569  Biso   1.000  C
  C7       1.0000 0.33040  0.14796  0.55022  Biso   1.000  C
  C8       1.0000 0.48881  0.11449  0.46543  Biso   1.000  C
  O13      1.0000 0.11765  0.02217  0.47686  Biso   1.000  O
  O14      1.0000 0.69900  0.24128  0.53838  Biso   1.000  O
  O15      1.0000 0.86101  0.02248  0.45415  Biso   1.000  O
  O16      1.0000 0.95928  0.23983  0.55760  Biso   1.000  O
  O17      1.0000 0.61743  0.14754  0.47626  Biso   1.000  O
  O18      1.0000 0.19882  0.11610  0.53907  Biso   1.000  O
  O19      1.0000 0.35986  0.14737  0.45433  Biso   1.000  O
  O20      1.0000 0.46127  0.11460  0.55664  Biso   1.000  O
  O21      1.0000 0.82615  0.08807  0.55176  Biso   1.000  O
  O22      1.0000 0.98792  0.17431  0.46599  Biso   1.000  O
  O23      1.0000 0.32612  0.21285  0.55406  Biso   1.000  O
  O24      1.0000 0.48859  0.04948  0.46559  Biso   1.000  O
  Li57     1.0000 0.46768  0.36787  0.31214  Biso   1.000  Li
  Li58     1.0000 0.96451  0.39435  0.36561  Biso   1.000  Li
  Li59     1.0000 0.12887  0.36509  0.28879  Biso   1.000  Li
  Li60     1.0000 0.31048  0.39382  0.39752  Biso   1.000  Li
  Li61     1.0000 0.96804  0.49288  0.31203  Biso   1.000  Li
  Li62     1.0000 0.46455  0.26926  0.36576  Biso   1.000  Li
  Li63     1.0000 0.62906  0.49012  0.28898  Biso   1.000  Li
  Li64     1.0000 0.81079  0.26885  0.39739  Biso   1.000  Li
  C9       1.0000 0.13754  0.27324  0.38127  Biso   1.000  C
  C10      1.0000 0.29690  0.48935  0.29707  Biso   1.000  C
  C11      1.0000 0.63752  0.39820  0.38127  Biso   1.000  C
  C12      1.0000 0.79697  0.36431  0.29714  Biso   1.000  C
  O25      1.0000 0.42778  0.27145  0.30838  Biso   1.000  O
  O26      1.0000 0.00903  0.49033  0.37022  Biso   1.000  O
  O27      1.0000 0.16666  0.27263  0.28984  Biso   1.000  O
  O28      1.0000 0.26583  0.49022  0.39270  Biso   1.000  O
  O29      1.0000 0.92823  0.39645  0.30822  Biso   1.000  O
  O30      1.0000 0.50883  0.36533  0.37034  Biso   1.000  O
  O31      1.0000 0.66668  0.39764  0.29003  Biso   1.000  O
  O32      1.0000 0.76596  0.36524  0.39260  Biso   1.000  O
  O33      1.0000 0.13831  0.33825  0.38093  Biso   1.000  O
  O34      1.0000 0.30080  0.42437  0.29402  Biso   1.000  O
  O35      1.0000 0.63835  0.46322  0.38094  Biso   1.000  O
  O36      1.0000 0.80081  0.29932  0.29407  Biso   1.000  O
  Li65     1.0000 0.16168  0.36812  0.48131  Biso   1.000  Li
  Li66     1.0000 0.65924  0.39492  0.53475  Biso   1.000  Li
  Li67     1.0000 0.81591  0.36886  0.44936  Biso   1.000  Li
  Li68     1.0000 0.99935  0.39724  0.55865  Biso   1.000  Li
  Li69     1.0000 0.66203  0.49347  0.48141  Biso   1.000  Li
  Li70     1.0000 0.15895  0.26904  0.53523  Biso   1.000  Li
  Li71     1.0000 0.31584  0.49382  0.44945  Biso   1.000  Li
  Li72     1.0000 0.49843  0.27219  0.55845  Biso   1.000  Li
  C13      1.0000 0.82987  0.27335  0.54981  Biso   1.000  C
  C14      1.0000 0.98889  0.48944  0.46552  Biso   1.000  C
  C15      1.0000 0.33005  0.39783  0.54958  Biso   1.000  C
  C16      1.0000 0.48910  0.36454  0.46558  Biso   1.000  C
  O37      1.0000 0.11787  0.27200  0.47689  Biso   1.000  O
  O38      1.0000 0.69859  0.49149  0.53901  Biso   1.000  O
  O39      1.0000 0.86152  0.27251  0.45413  Biso   1.000  O
  O40      1.0000 0.96032  0.48968  0.55713  Biso   1.000  O
  O41      1.0000 0.61767  0.39746  0.47659  Biso   1.000  O
  O42      1.0000 0.19893  0.36548  0.53862  Biso   1.000  O
  O43      1.0000 0.36051  0.39746  0.45431  Biso   1.000  O
  O44      1.0000 0.46053  0.36474  0.55684  Biso   1.000  O
  O45      1.0000 0.82669  0.33837  0.55258  Biso   1.000  O
  O46      1.0000 0.98845  0.42444  0.46571  Biso   1.000  O
  O47      1.0000 0.32577  0.46285  0.55246  Biso   1.000  O
  O48      1.0000 0.48857  0.29952  0.46576  Biso   1.000  O
  Li73     1.0000 0.46773  0.61792  0.31209  Biso   1.000  Li
  Li74     1.0000 0.96449  0.64432  0.36567  Biso   1.000  Li
  Li75     1.0000 0.12886  0.61515  0.28883  Biso   1.000  Li
  Li76     1.0000 0.31075  0.64377  0.39748  Biso   1.000  Li
  Li77     1.0000 0.96786  0.74290  0.31204  Biso   1.000  Li
  Li78     1.0000 0.46443  0.51921  0.36565  Biso   1.000  Li
  Li79     1.0000 0.62866  0.74020  0.28897  Biso   1.000  Li
  Li80     1.0000 0.81046  0.51876  0.39742  Biso   1.000  Li
  C17      1.0000 0.13758  0.52321  0.38126  Biso   1.000  C
  C18      1.0000 0.29671  0.73944  0.29713  Biso   1.000  C
  C19      1.0000 0.63748  0.64814  0.38128  Biso   1.000  C
  C20      1.0000 0.79696  0.61441  0.29714  Biso   1.000  C
  O49      1.0000 0.42796  0.52151  0.30831  Biso   1.000  O
  O50      1.0000 0.00889  0.74031  0.37027  Biso   1.000  O
  O51      1.0000 0.16681  0.52268  0.28979  Biso   1.000  O
  O52      1.0000 0.26575  0.74017  0.39269  Biso   1.000  O
  O53      1.0000 0.92820  0.64653  0.30828  Biso   1.000  O
  O54      1.0000 0.50893  0.61525  0.37026  Biso   1.000  O
  O55      1.0000 0.66674  0.64775  0.29000  Biso   1.000  O
  O56      1.0000 0.76589  0.61516  0.39264  Biso   1.000  O
  O57      1.0000 0.13846  0.58822  0.38092  Biso   1.000  O
  O58      1.0000 0.30065  0.67445  0.29403  Biso   1.000  O
  O59      1.0000 0.63823  0.71315  0.38101  Biso   1.000  O
  O60      1.0000 0.80081  0.54943  0.29407  Biso   1.000  O
  Li81     1.0000 0.16210  0.61845  0.48112  Biso   1.000  Li
  Li82     1.0000 0.65911  0.64431  0.53531  Biso   1.000  Li
  Li83     1.0000 0.81599  0.61882  0.44934  Biso   1.000  Li
  Li84     1.0000 0.99927  0.64709  0.55880  Biso   1.000  Li
  Li85     1.0000 0.66164  0.74306  0.48131  Biso   1.000  Li
  Li86     1.0000 0.15865  0.51943  0.53446  Biso   1.000  Li
  Li87     1.0000 0.31578  0.74378  0.44947  Biso   1.000  Li
  Li88     1.0000 0.49657  0.52239  0.55845  Biso   1.000  Li
  C21      1.0000 0.82996  0.52324  0.55039  Biso   1.000  C
  C22      1.0000 0.98889  0.73952  0.46545  Biso   1.000  C
  C23      1.0000 0.32972  0.64834  0.54954  Biso   1.000  C
  C24      1.0000 0.48928  0.61429  0.46575  Biso   1.000  C
  O61      1.0000 0.11732  0.52242  0.47655  Biso   1.000  O
  O62      1.0000 0.69902  0.74075  0.53876  Biso   1.000  O
  O63      1.0000 0.86035  0.52240  0.45421  Biso   1.000  O
  O64      1.0000 0.96085  0.73957  0.55675  Biso   1.000  O
  O65      1.0000 0.61801  0.64698  0.47686  Biso   1.000  O
  O66      1.0000 0.19886  0.61597  0.53839  Biso   1.000  O
  O67      1.0000 0.36138  0.64740  0.45422  Biso   1.000  O
  O68      1.0000 0.45932  0.61508  0.55750  Biso   1.000  O
  O69      1.0000 0.82615  0.58815  0.55413  Biso   1.000  O
  O70      1.0000 0.98880  0.67451  0.46551  Biso   1.000  O
  O71      1.0000 0.32631  0.71339  0.55191  Biso   1.000  O
  O72      1.0000 0.48790  0.54927  0.46613  Biso   1.000  O
  Li89     1.0000 0.46748  0.86796  0.31225  Biso   1.000  Li
  Li90     1.0000 0.96466  0.89431  0.36564  Biso   1.000  Li
  Li91     1.0000 0.12861  0.86516  0.28876  Biso   1.000  Li
  Li92     1.0000 0.31041  0.89380  0.39755  Biso   1.000  Li
  Li93     1.0000 0.96778  0.99287  0.31211  Biso   1.000  Li
  Li94     1.0000 0.46437  0.76927  0.36576  Biso   1.000  Li
  Li95     1.0000 0.62850  0.99013  0.28896  Biso   1.000  Li
  Li96     1.0000 0.81038  0.76877  0.39740  Biso   1.000  Li
  C25      1.0000 0.13749  0.77319  0.38129  Biso   1.000  C
  C26      1.0000 0.29666  0.98938  0.29718  Biso   1.000  C
  C27      1.0000 0.63760  0.89822  0.38134  Biso   1.000  C
  C28      1.0000 0.79672  0.86441  0.29719  Biso   1.000  C
  O73      1.0000 0.42772  0.77157  0.30839  Biso   1.000  O
  O74      1.0000 0.00898  0.99029  0.37023  Biso   1.000  O
  O75      1.0000 0.16661  0.77276  0.28985  Biso   1.000  O
  O76      1.0000 0.26579  0.99023  0.39276  Biso   1.000  O
  O77      1.0000 0.92800  0.89654  0.30826  Biso   1.000  O
  O78      1.0000 0.50888  0.86534  0.37039  Biso   1.000  O
  O79      1.0000 0.66639  0.89772  0.29010  Biso   1.000  O
  O80      1.0000 0.76605  0.86520  0.39260  Biso   1.000  O
  O81      1.0000 0.13839  0.83819  0.38096  Biso   1.000  O
  O82      1.0000 0.30057  0.92440  0.29410  Biso   1.000  O
  O83      1.0000 0.63839  0.96324  0.38109  Biso   1.000  O
  O84      1.0000 0.80060  0.79942  0.29410  Biso   1.000  O
  Li97     1.0000 0.16198  0.86856  0.48132  Biso   1.000  Li
  Li98     1.0000 0.65944  0.89425  0.53463  Biso   1.000  Li
  Li99     1.0000 0.81602  0.86874  0.44933  Biso   1.000  Li
  Li100    1.0000 0.99725  0.89731  0.55888  Biso   1.000  Li
  Li101    1.0000 0.66186  0.99323  0.48100  Biso   1.000  Li
  Li102    1.0000 0.15883  0.77005  0.53446  Biso   1.000  Li
  Li103    1.0000 0.31587  0.99384  0.44943  Biso   1.000  Li
  Li104    1.0000 0.49821  0.77243  0.55817  Biso   1.000  Li
  C29      1.0000 0.83026  0.77284  0.54989  Biso   1.000  C
  C30      1.0000 0.98913  0.98943  0.46564  Biso   1.000  C
  C31      1.0000 0.33002  0.89853  0.55008  Biso   1.000  C
  C32      1.0000 0.48903  0.86431  0.46563  Biso   1.000  C
  O85      1.0000 0.11719  0.77258  0.47648  Biso   1.000  O
  O86      1.0000 0.69927  0.99057  0.53821  Biso   1.000  O
  O87      1.0000 0.86007  0.77238  0.45423  Biso   1.000  O
  O88      1.0000 0.95970  0.98988  0.55733  Biso   1.000  O
  O89      1.0000 0.61786  0.89714  0.47653  Biso   1.000  O
  O90      1.0000 0.19854  0.86665  0.53883  Biso   1.000  O
  O91      1.0000 0.36071  0.89736  0.45429  Biso   1.000  O
  O92      1.0000 0.46013  0.86496  0.55708  Biso   1.000  O
  O93      1.0000 0.82599  0.83779  0.55330  Biso   1.000  O
  O94      1.0000 0.98816  0.92443  0.46580  Biso   1.000  O
  O95      1.0000 0.32658  0.96347  0.55345  Biso   1.000  O
  O96      1.0000 0.48798  0.79930  0.46600  Biso   1.000  O
