data_image0
_cell_length_a       8.24666
_cell_length_b       19.7195
_cell_length_c       35.1027
_cell_angle_alpha    90
_cell_angle_beta     90
_cell_angle_gamma    90

_symmetry_space_group_name_H-M    "P 1"
_symmetry_int_tables_number       1

loop_
  _symmetry_equiv_pos_as_xyz
  'x, y, z'

loop_
  _atom_site_label
  _atom_site_occupancy
  _atom_site_fract_x
  _atom_site_fract_y
  _atom_site_fract_z
  _atom_site_thermal_displace_type
  _atom_site_B_iso_or_equiv
  _atom_site_type_symbol
  Li1      1.0000 0.35566  0.99315  0.64861  Biso   1.000  Li
  Li2      1.0000 0.62666  0.09185  0.64764  Biso   1.000  Li
  Li3      1.0000 0.61400  0.99821  0.70880  Biso   1.000  Li
  Li4      1.0000 0.36103  0.09796  0.69962  Biso   1.000  Li
  F1       1.0000 0.36846  0.99747  0.70795  Biso   1.000  F
  F2       1.0000 0.59895  0.99583  0.63266  Biso   1.000  F
  F3       1.0000 0.36026  0.08749  0.64578  Biso   1.000  F
  F4       1.0000 0.61496  0.09815  0.70293  Biso   1.000  F
  Li5      1.0000 0.36778  0.18314  0.63720  Biso   1.000  Li
  Li6      1.0000 0.63400  0.27773  0.64163  Biso   1.000  Li
  Li7      1.0000 0.62410  0.19756  0.70227  Biso   1.000  Li
  Li8      1.0000 0.35882  0.29474  0.68393  Biso   1.000  Li
  F5       1.0000 0.36099  0.19757  0.69587  Biso   1.000  F
  F6       1.0000 0.60755  0.18280  0.63128  Biso   1.000  F
  F7       1.0000 0.40587  0.28901  0.62827  Biso   1.000  F
  F8       1.0000 0.61022  0.29482  0.69531  Biso   1.000  F
  Li9      1.0000 0.40734  0.39290  0.62688  Biso   1.000  Li
  Li10     1.0000 0.62468  0.50051  0.64236  Biso   1.000  Li
  Li11     1.0000 0.61121  0.39511  0.69113  Biso   1.000  Li
  Li12     1.0000 0.35848  0.49599  0.68560  Biso   1.000  Li
  F9       1.0000 0.35553  0.39516  0.68349  Biso   1.000  F
  F10      1.0000 0.62757  0.40253  0.63697  Biso   1.000  F
  F11      1.0000 0.39472  0.50560  0.62601  Biso   1.000  F
  F12      1.0000 0.60518  0.49489  0.69712  Biso   1.000  F
  Li13     1.0000 0.37982  0.60611  0.63489  Biso   1.000  Li
  Li14     1.0000 0.61427  0.70059  0.64740  Biso   1.000  Li
  Li15     1.0000 0.61498  0.59432  0.69762  Biso   1.000  Li
  Li16     1.0000 0.36219  0.69391  0.69948  Biso   1.000  Li
  F13      1.0000 0.35519  0.59479  0.69454  Biso   1.000  F
  F14      1.0000 0.61663  0.60352  0.64235  Biso   1.000  F
  F15      1.0000 0.36257  0.70325  0.64350  Biso   1.000  F
  F16      1.0000 0.61064  0.69524  0.70349  Biso   1.000  F
  Li17     1.0000 0.35884  0.79951  0.65018  Biso   1.000  Li
  Li18     1.0000 0.60531  0.89792  0.64492  Biso   1.000  Li
  Li19     1.0000 0.61199  0.79637  0.70283  Biso   1.000  Li
  Li20     1.0000 0.36452  0.89731  0.70553  Biso   1.000  Li
  F17      1.0000 0.36322  0.79557  0.70651  Biso   1.000  F
  F18      1.0000 0.60822  0.79878  0.64375  Biso   1.000  F
  F19      1.0000 0.35858  0.89632  0.64972  Biso   1.000  F
  F20      1.0000 0.61209  0.89841  0.70490  Biso   1.000  F
  Li21     1.0000 0.87196  0.99311  0.64610  Biso   1.000  Li
  Li22     1.0000 0.10638  0.09041  0.64622  Biso   1.000  Li
  Li23     1.0000 0.10655  0.99784  0.70498  Biso   1.000  Li
  Li24     1.0000 0.86584  0.10195  0.69905  Biso   1.000  Li
  F21      1.0000 0.85624  0.99649  0.70653  Biso   1.000  F
  F22      1.0000 0.11323  0.99173  0.64909  Biso   1.000  F
  F23      1.0000 0.86395  0.08641  0.64498  Biso   1.000  F
  F24      1.0000 0.11151  0.09939  0.70277  Biso   1.000  F
  Li25     1.0000 0.05265  0.26723  0.62818  Biso   1.000  Li
  Li26     1.0000 0.10786  0.19774  0.69987  Biso   1.000  Li
  Li27     1.0000 0.87093  0.29524  0.69251  Biso   1.000  Li
  F25      1.0000 0.86669  0.20013  0.70794  Biso   1.000  F
  F26      1.0000 0.13113  0.17878  0.62462  Biso   1.000  F
  F27      1.0000 0.84952  0.29711  0.63862  Biso   1.000  F
  F28      1.0000 0.11710  0.29154  0.68364  Biso   1.000  F
  Li28     1.0000 0.85238  0.39445  0.63720  Biso   1.000  Li
  Li29     1.0000 0.08325  0.50528  0.62962  Biso   1.000  Li
  Li30     1.0000 0.11778  0.39461  0.67961  Biso   1.000  Li
  Li31     1.0000 0.87402  0.49632  0.69291  Biso   1.000  Li
  F29      1.0000 0.87705  0.39669  0.69389  Biso   1.000  F
  F30      1.0000 0.08573  0.40540  0.62244  Biso   1.000  F
  F31      1.0000 0.85366  0.50485  0.63834  Biso   1.000  F
  F32      1.0000 0.12013  0.49790  0.68581  Biso   1.000  F
  Li32     1.0000 0.84741  0.60343  0.63406  Biso   1.000  Li
  Li33     1.0000 0.11177  0.70312  0.64563  Biso   1.000  Li
  Li34     1.0000 0.11268  0.59508  0.69530  Biso   1.000  Li
  Li35     1.0000 0.86229  0.69323  0.70033  Biso   1.000  Li
  F33      1.0000 0.86993  0.59436  0.70154  Biso   1.000  F
  F34      1.0000 0.10105  0.60966  0.62680  Biso   1.000  F
  F35      1.0000 0.85850  0.70155  0.64420  Biso   1.000  F
  F36      1.0000 0.11242  0.69440  0.70142  Biso   1.000  F
  Li36     1.0000 0.86249  0.79923  0.64742  Biso   1.000  Li
  Li37     1.0000 0.11572  0.89606  0.65330  Biso   1.000  Li
  Li38     1.0000 0.10925  0.79543  0.70438  Biso   1.000  Li
  Li39     1.0000 0.85696  0.89696  0.70370  Biso   1.000  Li
  F37      1.0000 0.85897  0.79598  0.70523  Biso   1.000  F
  F38      1.0000 0.11141  0.80034  0.64745  Biso   1.000  F
  F39      1.0000 0.86187  0.89714  0.64628  Biso   1.000  F
  F40      1.0000 0.10993  0.89636  0.70881  Biso   1.000  F
  Li40     1.0000 0.46473  0.12299  0.31623  Biso   1.000  Li
  Li41     1.0000 0.96735  0.14782  0.37052  Biso   1.000  Li
  Li42     1.0000 0.12827  0.11896  0.29330  Biso   1.000  Li
  Li43     1.0000 0.30896  0.15024  0.40378  Biso   1.000  Li
  Li44     1.0000 0.97598  0.24621  0.31716  Biso   1.000  Li
  Li45     1.0000 0.46461  0.02527  0.37178  Biso   1.000  Li
  Li46     1.0000 0.62771  0.24643  0.29761  Biso   1.000  Li
  Li47     1.0000 0.80759  0.02828  0.40959  Biso   1.000  Li
  C1       1.0000 0.13719  0.02988  0.38809  Biso   1.000  C
  C2       1.0000 0.29389  0.24503  0.30160  Biso   1.000  C
  C3       1.0000 0.63438  0.15459  0.38508  Biso   1.000  C
  C4       1.0000 0.79668  0.12023  0.30231  Biso   1.000  C
  O1       1.0000 0.42862  0.02686  0.31371  Biso   1.000  O
  O2       1.0000 0.00863  0.24445  0.37558  Biso   1.000  O
  O3       1.0000 0.16508  0.02710  0.29714  Biso   1.000  O
  O4       1.0000 0.26290  0.24598  0.39910  Biso   1.000  O
  O5       1.0000 0.92939  0.15209  0.31290  Biso   1.000  O
  O6       1.0000 0.50501  0.12365  0.37388  Biso   1.000  O
  O7       1.0000 0.66682  0.15438  0.29568  Biso   1.000  O
  O8       1.0000 0.76370  0.12217  0.39536  Biso   1.000  O
  O9       1.0000 0.14121  0.09490  0.38625  Biso   1.000  O
  O10      1.0000 0.29755  0.18028  0.29763  Biso   1.000  O
  O11      1.0000 0.63612  0.22042  0.38799  Biso   1.000  O
  O12      1.0000 0.79944  0.05545  0.29928  Biso   1.000  O
  Li48     1.0000 0.16522  0.12608  0.48783  Biso   1.000  Li
  Li49     1.0000 0.66681  0.16346  0.57811  Biso   1.000  Li
  Li50     1.0000 0.82281  0.11713  0.49752  Biso   1.000  Li
  Li51     1.0000 0.02398  0.15691  0.57550  Biso   1.000  Li
  Li52     1.0000 0.63481  0.25059  0.50088  Biso   1.000  Li
  Li53     1.0000 0.17187  0.02837  0.54352  Biso   1.000  Li
  Li54     1.0000 0.31510  0.25062  0.45643  Biso   1.000  Li
  Li55     1.0000 0.51297  0.02470  0.57771  Biso   1.000  Li
  C5       1.0000 0.83707  0.03313  0.55585  Biso   1.000  C
  C6       1.0000 0.97922  0.24526  0.47441  Biso   1.000  C
  C7       1.0000 0.34284  0.15416  0.55332  Biso   1.000  C
  C8       1.0000 0.49327  0.12329  0.46973  Biso   1.000  C
  O13      1.0000 0.12283  0.02881  0.48453  Biso   1.000  O
  O14      1.0000 0.69984  0.25306  0.55566  Biso   1.000  O
  O15      1.0000 0.85901  0.03182  0.46759  Biso   1.000  O
  O16      1.0000 0.97031  0.25174  0.56581  Biso   1.000  O
  O17      1.0000 0.62247  0.15850  0.47776  Biso   1.000  O
  O18      1.0000 0.20709  0.12401  0.54337  Biso   1.000  O
  O19      1.0000 0.36099  0.15460  0.45908  Biso   1.000  O
  O20      1.0000 0.46445  0.11948  0.56496  Biso   1.000  O
  O21      1.0000 0.83800  0.09937  0.55395  Biso   1.000  O
  O22      1.0000 0.97742  0.17934  0.47325  Biso   1.000  O
  O23      1.0000 0.34930  0.21957  0.55078  Biso   1.000  O
  O24      1.0000 0.49448  0.05858  0.47156  Biso   1.000  O
  Li56     1.0000 0.46812  0.37294  0.31813  Biso   1.000  Li
  Li57     1.0000 0.96931  0.40522  0.37584  Biso   1.000  Li
  Li58     1.0000 0.13195  0.37223  0.29632  Biso   1.000  Li
  Li59     1.0000 0.30975  0.40007  0.40310  Biso   1.000  Li
  Li60     1.0000 0.97003  0.50010  0.31878  Biso   1.000  Li
  Li61     1.0000 0.45622  0.27545  0.37270  Biso   1.000  Li
  Li62     1.0000 0.63391  0.49455  0.29297  Biso   1.000  Li
  Li63     1.0000 0.79617  0.28584  0.37484  Biso   1.000  Li
  C9       1.0000 0.13515  0.27834  0.38713  Biso   1.000  C
  C10      1.0000 0.30191  0.49485  0.30243  Biso   1.000  C
  C11      1.0000 0.63509  0.40519  0.38645  Biso   1.000  C
  C12      1.0000 0.79710  0.36967  0.30861  Biso   1.000  C
  O25      1.0000 0.42325  0.27652  0.31435  Biso   1.000  O
  O26      1.0000 0.00477  0.49995  0.37662  Biso   1.000  O
  O27      1.0000 0.16494  0.27918  0.29383  Biso   1.000  O
  O28      1.0000 0.26499  0.49598  0.39652  Biso   1.000  O
  O29      1.0000 0.93033  0.40242  0.31591  Biso   1.000  O
  O30      1.0000 0.50809  0.37104  0.37522  Biso   1.000  O
  O31      1.0000 0.67150  0.39998  0.29579  Biso   1.000  O
  O32      1.0000 0.76498  0.37253  0.39729  Biso   1.000  O
  O33      1.0000 0.13546  0.34331  0.38628  Biso   1.000  O
  O34      1.0000 0.30612  0.42981  0.29880  Biso   1.000  O
  O35      1.0000 0.63346  0.46990  0.38646  Biso   1.000  O
  O36      1.0000 0.79182  0.30442  0.31554  Biso   1.000  O
  Li64     1.0000 0.15551  0.37593  0.48464  Biso   1.000  Li
  Li65     1.0000 0.66055  0.40459  0.54412  Biso   1.000  Li
  Li66     1.0000 0.80790  0.37216  0.45628  Biso   1.000  Li
  Li67     1.0000 0.02167  0.40509  0.56957  Biso   1.000  Li
  Li68     1.0000 0.65538  0.50139  0.49026  Biso   1.000  Li
  Li69     1.0000 0.16737  0.27502  0.53804  Biso   1.000  Li
  Li70     1.0000 0.31729  0.49981  0.45505  Biso   1.000  Li
  Li71     1.0000 0.47743  0.28451  0.57561  Biso   1.000  Li
  C13      1.0000 0.83742  0.28557  0.56036  Biso   1.000  C
  C14      1.0000 0.98354  0.49672  0.46806  Biso   1.000  C
  C15      1.0000 0.32897  0.40794  0.54957  Biso   1.000  C
  C16      1.0000 0.48634  0.37137  0.47249  Biso   1.000  C
  O37      1.0000 0.11220  0.27756  0.48137  Biso   1.000  O
  O38      1.0000 0.69663  0.50197  0.54830  Biso   1.000  O
  O39      1.0000 0.84452  0.27687  0.46740  Biso   1.000  O
  O40      1.0000 0.96614  0.49839  0.55948  Biso   1.000  O
  O41      1.0000 0.61283  0.40490  0.48408  Biso   1.000  O
  O42      1.0000 0.20418  0.37167  0.53922  Biso   1.000  O
  O43      1.0000 0.36178  0.40320  0.45795  Biso   1.000  O
  O44      1.0000 0.45174  0.37912  0.56595  Biso   1.000  O
  O45      1.0000 0.83867  0.35052  0.55890  Biso   1.000  O
  O46      1.0000 0.98708  0.43176  0.46585  Biso   1.000  O
  O47      1.0000 0.32980  0.47205  0.54380  Biso   1.000  O
  O48      1.0000 0.48278  0.30650  0.47516  Biso   1.000  O
  Li72     1.0000 0.47326  0.62379  0.31681  Biso   1.000  Li
  Li73     1.0000 0.96571  0.65125  0.37286  Biso   1.000  Li
  Li74     1.0000 0.13355  0.62084  0.29603  Biso   1.000  Li
  Li75     1.0000 0.31512  0.65172  0.40283  Biso   1.000  Li
  Li76     1.0000 0.96903  0.74800  0.31900  Biso   1.000  Li
  Li77     1.0000 0.46311  0.52723  0.37103  Biso   1.000  Li
  Li78     1.0000 0.63277  0.74601  0.29459  Biso   1.000  Li
  Li79     1.0000 0.80331  0.52640  0.40427  Biso   1.000  Li
  C17      1.0000 0.13834  0.53102  0.38632  Biso   1.000  C
  C18      1.0000 0.30048  0.74501  0.30308  Biso   1.000  C
  C19      1.0000 0.63887  0.65544  0.38633  Biso   1.000  C
  C20      1.0000 0.80070  0.61967  0.30242  Biso   1.000  C
  O49      1.0000 0.43425  0.52686  0.31265  Biso   1.000  O
  O50      1.0000 0.00938  0.74753  0.37677  Biso   1.000  O
  O51      1.0000 0.17011  0.52783  0.29662  Biso   1.000  O
  O52      1.0000 0.26859  0.74776  0.39773  Biso   1.000  O
  O53      1.0000 0.93078  0.65118  0.31471  Biso   1.000  O
  O54      1.0000 0.51124  0.62262  0.37459  Biso   1.000  O
  O55      1.0000 0.67192  0.65339  0.29455  Biso   1.000  O
  O56      1.0000 0.76531  0.62236  0.39862  Biso   1.000  O
  O57      1.0000 0.14459  0.59584  0.38552  Biso   1.000  O
  O58      1.0000 0.30600  0.68021  0.29890  Biso   1.000  O
  O59      1.0000 0.64041  0.72043  0.38582  Biso   1.000  O
  O60      1.0000 0.80406  0.55460  0.29884  Biso   1.000  O
  Li80     1.0000 0.16374  0.62740  0.48427  Biso   1.000  Li
  Li81     1.0000 0.65862  0.64825  0.54547  Biso   1.000  Li
  Li82     1.0000 0.81414  0.62639  0.45607  Biso   1.000  Li
  Li83     1.0000 0.01824  0.64877  0.57255  Biso   1.000  Li
  Li84     1.0000 0.66059  0.74943  0.48968  Biso   1.000  Li
  Li85     1.0000 0.15604  0.52903  0.53364  Biso   1.000  Li
  Li86     1.0000 0.31873  0.75156  0.45538  Biso   1.000  Li
  Li87     1.0000 0.47761  0.52520  0.57226  Biso   1.000  Li
  C21      1.0000 0.83163  0.53150  0.55877  Biso   1.000  C
  C22      1.0000 0.98949  0.74748  0.47005  Biso   1.000  C
  C23      1.0000 0.33017  0.65542  0.55324  Biso   1.000  C
  C24      1.0000 0.49131  0.62165  0.47125  Biso   1.000  C
  O61      1.0000 0.11302  0.53047  0.47753  Biso   1.000  O
  O62      1.0000 0.70390  0.74540  0.54652  Biso   1.000  O
  O63      1.0000 0.84988  0.52928  0.46034  Biso   1.000  O
  O64      1.0000 0.96888  0.74315  0.56200  Biso   1.000  O
  O65      1.0000 0.61782  0.65320  0.48467  Biso   1.000  O
  O66      1.0000 0.20151  0.62425  0.54003  Biso   1.000  O
  O67      1.0000 0.36707  0.65593  0.45851  Biso   1.000  O
  O68      1.0000 0.44960  0.62100  0.56701  Biso   1.000  O
  O69      1.0000 0.82806  0.59517  0.56792  Biso   1.000  O
  O70      1.0000 0.99266  0.68266  0.46779  Biso   1.000  O
  O71      1.0000 0.33588  0.72057  0.55240  Biso   1.000  O
  O72      1.0000 0.48840  0.55676  0.47033  Biso   1.000  O
  Li88     1.0000 0.47055  0.87360  0.31820  Biso   1.000  Li
  Li89     1.0000 0.96286  0.90161  0.37402  Biso   1.000  Li
  Li90     1.0000 0.12890  0.87005  0.29745  Biso   1.000  Li
  Li91     1.0000 0.31156  0.90045  0.40438  Biso   1.000  Li
  Li92     1.0000 0.96472  0.99894  0.31997  Biso   1.000  Li
  Li93     1.0000 0.46713  0.77731  0.37157  Biso   1.000  Li
  Li94     1.0000 0.62896  0.99523  0.29423  Biso   1.000  Li
  Li95     1.0000 0.80942  0.77580  0.40442  Biso   1.000  Li
  C25      1.0000 0.13897  0.78050  0.38710  Biso   1.000  C
  C26      1.0000 0.29685  0.99411  0.30338  Biso   1.000  C
  C27      1.0000 0.63774  0.90629  0.38859  Biso   1.000  C
  C28      1.0000 0.79922  0.87031  0.30397  Biso   1.000  C
  O73      1.0000 0.43184  0.77736  0.31392  Biso   1.000  O
  O74      1.0000 0.00517  0.99781  0.37882  Biso   1.000  O
  O75      1.0000 0.16852  0.77790  0.29721  Biso   1.000  O
  O76      1.0000 0.26583  0.99693  0.39915  Biso   1.000  O
  O77      1.0000 0.92811  0.90279  0.31618  Biso   1.000  O
  O78      1.0000 0.51021  0.87419  0.37608  Biso   1.000  O
  O79      1.0000 0.66913  0.90334  0.29610  Biso   1.000  O
  O80      1.0000 0.76440  0.87245  0.40005  Biso   1.000  O
  O81      1.0000 0.13935  0.84557  0.38689  Biso   1.000  O
  O82      1.0000 0.30201  0.92933  0.30013  Biso   1.000  O
  O83      1.0000 0.63866  0.97138  0.38974  Biso   1.000  O
  O84      1.0000 0.80489  0.80545  0.30040  Biso   1.000  O
  Li96     1.0000 0.16476  0.87656  0.48747  Biso   1.000  Li
  Li97     1.0000 0.66561  0.90105  0.54231  Biso   1.000  Li
  Li98     1.0000 0.81571  0.87590  0.45723  Biso   1.000  Li
  Li99     1.0000 0.00142  0.90562  0.56533  Biso   1.000  Li
  Li100    1.0000 0.65434  0.99981  0.49052  Biso   1.000  Li
  Li101    1.0000 0.16251  0.77694  0.53869  Biso   1.000  Li
  Li102    1.0000 0.31932  0.00147  0.45662  Biso   1.000  Li
  Li103    1.0000 0.50498  0.77806  0.56677  Biso   1.000  Li
  C29      1.0000 0.83886  0.77692  0.55557  Biso   1.000  C
  C30      1.0000 0.99096  0.99718  0.47451  Biso   1.000  C
  C31      1.0000 0.33594  0.90534  0.55749  Biso   1.000  C
  C32      1.0000 0.49165  0.87182  0.47236  Biso   1.000  C
  O85      1.0000 0.11770  0.78079  0.48094  Biso   1.000  O
  O86      1.0000 0.70558  0.00005  0.54669  Biso   1.000  O
  O87      1.0000 0.85716  0.77999  0.46099  Biso   1.000  O
  O88      1.0000 0.96577  0.00084  0.56566  Biso   1.000  O
  O89      1.0000 0.61841  0.90468  0.48456  Biso   1.000  O
  O90      1.0000 0.20447  0.87495  0.54479  Biso   1.000  O
  O91      1.0000 0.36418  0.90516  0.46062  Biso   1.000  O
  O92      1.0000 0.46540  0.87069  0.56387  Biso   1.000  O
  O93      1.0000 0.83751  0.84246  0.55730  Biso   1.000  O
  O94      1.0000 0.99068  0.93243  0.47133  Biso   1.000  O
  O95      1.0000 0.33357  0.96980  0.56300  Biso   1.000  O
  O96      1.0000 0.49198  0.80695  0.47161  Biso   1.000  O
  Au1      1.0000 0.77164  0.19347  0.43922  Biso   1.000  Au
